  
       XFOIL         Version 6.99
  
 Calculated polar for: NACA 2415                                       
  
 1 1 Reynolds number fixed          Mach number fixed         
  
 xtrf =   1.000 (top)        1.000 (bottom)  
 Mach =   0.000     Re =     0.200 e 6     Ncrit =   9.000  9.000
  
   alpha    CL        CD       CDp       CM     Top_Xtr  Bot_Xtr  Top_Itr  Bot_Itr
  ------ -------- --------- --------- -------- -------- -------- -------- --------
  -8.000  -0.8085   0.02334   0.01022  -0.0240   1.0000   0.0830   1.0000 107.1404
  -7.440  -0.7350   0.02186   0.00923  -0.0274   0.9936   0.0927   1.7114 108.1280
  -6.880  -0.6508   0.02045   0.00840  -0.0327   0.9835   0.1058   2.6359 109.3269
  -6.320  -0.5665   0.01928   0.00765  -0.0378   0.9722   0.1235   3.5323 110.7734
  -5.760  -0.4828   0.01806   0.00695  -0.0427   0.9604   0.1469   4.3796 112.4707
  -5.200  -0.3909   0.01695   0.00630  -0.0490   0.9515   0.1808   4.9898 114.6854
  -4.640  -0.3103   0.01593   0.00577  -0.0528   0.9380   0.2228   5.8522 117.2090
  -4.080  -0.2319   0.01498   0.00529  -0.0560   0.9239   0.2748   6.7097 120.1587
  -3.520  -0.1583   0.01404   0.00482  -0.0579   0.9082   0.3352   7.6282 123.4595
  -2.960  -0.0902   0.01311   0.00436  -0.0584   0.8902   0.4066   8.6607 127.2734
  -2.400  -0.0272   0.01222   0.00399  -0.0577   0.8698   0.4982   9.8092 132.1444
  -1.840   0.0320   0.01151   0.00376  -0.0559   0.8466   0.6025  11.0993 137.6227
  -1.280   0.0882   0.01106   0.00366  -0.0533   0.8185   0.6987  12.6482 142.6312
  -0.720   0.1460   0.01081   0.00359  -0.0507   0.7906   0.7833  14.1808 147.0194
  -0.160   0.2042   0.01081   0.00365  -0.0479   0.7601   0.8531  15.8484 150.6576
   0.400   0.2694   0.01105   0.00378  -0.0467   0.7284   0.9078  17.5821 153.5846
   0.960   0.3497   0.01142   0.00389  -0.0490   0.6967   0.9464  19.3159 155.8127
   1.520   0.4509   0.01178   0.00393  -0.0563   0.6639   0.9696  21.1071 157.3511
   2.080   0.5544   0.01204   0.00389  -0.0646   0.6306   0.9911  22.9274 159.0389
   2.640   0.6343   0.01216   0.00375  -0.0688   0.5991   1.0000  24.6561 160.0000
   3.200   0.6825   0.01239   0.00361  -0.0665   0.5725   1.0000  26.1126 160.0000
   3.760   0.7296   0.01266   0.00361  -0.0637   0.5453   1.0000  27.6118 160.0000
   4.320   0.7774   0.01306   0.00358  -0.0609   0.5195   1.0000  29.0331 160.0000
   4.880   0.8236   0.01343   0.00368  -0.0578   0.4917   1.0000  30.5687 160.0000
   5.440   0.8705   0.01392   0.00371  -0.0547   0.4646   1.0000  32.0787 160.0000
   6.000   0.9156   0.01437   0.00381  -0.0513   0.4350   1.0000  33.7375 160.0000
   6.560   0.9603   0.01490   0.00390  -0.0478   0.4042   1.0000  35.4797 160.0000
   7.120   1.0042   0.01550   0.00401  -0.0443   0.3712   1.0000  37.3785 160.0000
   7.680   1.0465   0.01623   0.00416  -0.0407   0.3354   1.0000  39.4733 160.0000
   8.240   1.0858   0.01715   0.00441  -0.0367   0.2975   1.0000  41.7259 160.0000
   8.800   1.1208   0.01832   0.00480  -0.0323   0.2591   1.0000  44.0534 160.0000
   9.360   1.1511   0.01967   0.00534  -0.0273   0.2210   1.0000  46.4308 160.0000
   9.920   1.1737   0.02135   0.00610  -0.0215   0.1875   1.0000  48.6015 160.0000
  10.480   1.1946   0.02344   0.00716  -0.0162   0.1592   1.0000  50.5401 160.0000
  11.040   1.2120   0.02601   0.00857  -0.0112   0.1373   1.0000  52.1331 160.0000
  11.600   1.2306   0.02879   0.01025  -0.0072   0.1196   1.0000  53.5199 160.0000
  12.160   1.2463   0.03203   0.01225  -0.0036   0.1063   1.0000  54.6475 160.0000
  12.720   1.2610   0.03562   0.01455  -0.0006   0.0958   1.0000  55.6093 160.0000
  13.280   1.2750   0.03952   0.01708   0.0019   0.0874   1.0000  56.4422 160.0000
  13.840   1.2889   0.04362   0.01970   0.0040   0.0805   1.0000  57.1665 160.0000
  14.400   1.3021   0.04790   0.02260   0.0055   0.0746   1.0000  57.8328 160.0000
  14.960   1.3138   0.05256   0.02584   0.0069   0.0695   1.0000  58.4443 160.0000
  15.520   1.3331   0.05653   0.02810   0.0083   0.0650   1.0000  59.0151 160.0000
  16.080   1.3334   0.06272   0.03305   0.0084   0.0616   1.0000  59.4763 160.0000
  16.640   1.3523   0.06690   0.03550   0.0092   0.0581   1.0000  59.9670 160.0000
  17.760   1.3382   0.08231   0.04852   0.0065   0.0534   1.0000  60.6769 160.0000
  18.320   1.3502   0.08764   0.05233   0.0064   0.0511   1.0000  61.0439 160.0000
  18.880   1.3134   0.10056   0.06544   0.0007   0.0499   1.0000  61.2468 160.0000
  19.440   1.2732   0.11516   0.08175  -0.0068   0.0487   1.0000  61.4385 160.0000
  20.000   1.1926   0.13928   0.11341  -0.0221   0.0486   1.0000  61.4677 160.0000
