  
       XFOIL         Version 6.99
  
 Calculated polar for: NACA 2415                                       
  
 1 1 Reynolds number fixed          Mach number fixed         
  
 xtrf =   1.000 (top)        1.000 (bottom)  
 Mach =   0.000     Re =     0.200 e 6     Ncrit =   9.000  9.000
  
   alpha    CL        CD       CDp       CM     Top_Xtr  Bot_Xtr  Top_Itr  Bot_Itr
  ------ -------- --------- --------- -------- -------- -------- -------- --------
  -8.000  -0.8085   0.02334   0.01022  -0.0240   1.0000   0.0830   1.0000 107.1404
  -7.600  -0.7593   0.02241   0.00962  -0.0258   0.9960   0.0895   1.4403 107.8097
  -7.200  -0.6976   0.02132   0.00896  -0.0300   0.9900   0.0979   2.0810 108.6219
  -6.800  -0.6380   0.02031   0.00832  -0.0336   0.9821   0.1081   2.7499 109.5221
  -6.400  -0.5786   0.01941   0.00776  -0.0371   0.9740   0.1205   3.3929 110.5376
  -6.000  -0.5143   0.01858   0.00723  -0.0415   0.9671   0.1367   3.9150 111.7550
  -5.600  -0.4582   0.01781   0.00674  -0.0441   0.9569   0.1553   4.6239 113.0476
  -5.200  -0.3909   0.01695   0.00630  -0.0490   0.9515   0.1808   4.9897 114.6855
  -4.800  -0.3378   0.01623   0.00594  -0.0508   0.9399   0.2084   5.7261 116.3613
  -4.000  -0.2195   0.01482   0.00521  -0.0567   0.9225   0.2835   6.7921 120.6375
  -3.600  -0.1686   0.01421   0.00489  -0.0577   0.9104   0.3265   7.5004 122.9892
  -3.200  -0.1131   0.01343   0.00448  -0.0594   0.9016   0.3767   8.0127 125.6815
  -2.800  -0.0696   0.01280   0.00421  -0.0587   0.8861   0.4315   8.8942 128.5996
  -2.400  -0.0272   0.01222   0.00399  -0.0577   0.8698   0.4982   9.8092 132.1453
  -2.000   0.0145   0.01171   0.00383  -0.0564   0.8526   0.5726  10.7661 136.0599
  -1.600   0.0558   0.01130   0.00371  -0.0548   0.8343   0.6453  11.7769 139.8543
  -1.200   0.0969   0.01100   0.00363  -0.0530   0.8151   0.7115  12.8345 143.2962
  -0.800   0.1382   0.01081   0.00359  -0.0511   0.7951   0.7714  13.9325 146.4054
  -0.400   0.1792   0.01077   0.00360  -0.0491   0.7737   0.8248  15.1063 149.1779
   0.000   0.2216   0.01086   0.00369  -0.0473   0.7510   0.8703  16.3463 151.5665
   0.400   0.2694   0.01105   0.00378  -0.0467   0.7284   0.9078  17.5821 153.5858
   0.800   0.3250   0.01131   0.00385  -0.0479   0.7060   0.9367  18.8099 155.2293
   1.200   0.3924   0.01159   0.00391  -0.0519   0.6832   0.9567  20.0541 156.4707
   1.600   0.4657   0.01182   0.00396  -0.0575   0.6585   0.9729  21.4043 157.5861
   2.000   0.5399   0.01199   0.00392  -0.0635   0.6347   0.9881  22.7050 158.7858
   2.400   0.6140   0.01212   0.00380  -0.0697   0.6119   1.0000  23.9548 160.0000
   2.800   0.6486   0.01223   0.00367  -0.0682   0.5920   1.0000  25.0410 160.0000
   3.200   0.6825   0.01239   0.00361  -0.0665   0.5725   1.0000  26.1129 160.0000
   3.600   0.7164   0.01259   0.00359  -0.0646   0.5534   1.0000  27.1655 160.0000
   4.000   0.7501   0.01283   0.00359  -0.0626   0.5343   1.0000  28.2133 160.0000
   4.400   0.7837   0.01309   0.00362  -0.0604   0.5152   1.0000  29.2685 160.0000
   4.800   0.8171   0.01338   0.00366  -0.0583   0.4959   1.0000  30.3407 160.0000
   5.200   0.8502   0.01369   0.00371  -0.0560   0.4760   1.0000  31.4405 160.0000
   5.600   0.8831   0.01402   0.00376  -0.0537   0.4557   1.0000  32.5728 160.0000
   6.000   0.9156   0.01437   0.00381  -0.0513   0.4350   1.0000  33.7376 160.0000
   6.400   0.9477   0.01477   0.00385  -0.0488   0.4137   1.0000  34.9363 160.0000
   6.800   0.9792   0.01516   0.00394  -0.0463   0.3906   1.0000  36.2563 160.0000
   7.200   1.0103   0.01559   0.00402  -0.0438   0.3661   1.0000  37.6737 160.0000
   7.600   1.0403   0.01614   0.00412  -0.0412   0.3411   1.0000  39.1349 160.0000
   8.000   1.0693   0.01673   0.00429  -0.0385   0.3139   1.0000  40.7416 160.0000
   8.400   1.0966   0.01745   0.00451  -0.0356   0.2865   1.0000  42.3874 160.0000
   8.800   1.1208   0.01832   0.00480  -0.0323   0.2591   1.0000  44.0531 160.0000
   9.200   1.1434   0.01926   0.00517  -0.0289   0.2314   1.0000  45.7774 160.0000
   9.600   1.1609   0.02034   0.00563  -0.0247   0.2062   1.0000  47.3767 160.0000
  10.000   1.1758   0.02167   0.00623  -0.0206   0.1835   1.0000  48.8683 160.0000
  10.400   1.1912   0.02315   0.00700  -0.0168   0.1632   1.0000  50.2591 160.0000
  10.800   1.2057   0.02481   0.00791  -0.0134   0.1457   1.0000  51.5064 160.0000
  11.200   1.2186   0.02670   0.00900  -0.0101   0.1314   1.0000  52.5840 160.0000
  11.600   1.2306   0.02879   0.01025  -0.0072   0.1196   1.0000  53.5204 160.0000
  12.000   1.2414   0.03112   0.01167  -0.0045   0.1099   1.0000  54.3350 160.0000
