  
       XFOIL         Version 6.99
  
 Calculated polar for: NACA 23012                                      
  
 1 1 Reynolds number fixed          Mach number fixed         
  
 xtrf =   1.000 (top)        1.000 (bottom)  
 Mach =   0.000     Re =     0.200 e 6     Ncrit =   9.000  9.000
  
   alpha    CL        CD       CDp       CM     Top_Xtr  Bot_Xtr  Top_Itr  Bot_Itr
  ------ -------- --------- --------- -------- -------- -------- -------- --------
  -5.280  -0.5320   0.03437   0.02290  -0.0055   1.0000   0.0930   1.0000 103.3691
  -4.920  -0.5155   0.03223   0.02063  -0.0023   1.0000   0.1059   1.0000 104.2266
  -4.560  -0.4934   0.03069   0.01861   0.0004   1.0000   0.1152   1.0000 104.8183
  -3.840  -0.3675   0.01970   0.00830  -0.0024   0.9899   0.0575   2.1776 100.4613
  -3.480  -0.3026   0.01857   0.00704  -0.0070   0.9816   0.0626   2.9237 100.9812
  -3.120  -0.2426   0.01667   0.00598  -0.0110   0.9713   0.0686   3.7236 101.5068
  -2.760  -0.1773   0.01524   0.00497  -0.0158   0.9585   0.0781   4.6389 102.2836
  -2.400  -0.1182   0.01400   0.00410  -0.0193   0.9434   0.0918   5.6427 103.2835
  -2.040  -0.0686   0.01299   0.00336  -0.0207   0.9252   0.1160   6.7880 104.8687
  -1.680  -0.0480   0.00995   0.00284  -0.0170   0.9022   0.6461   8.2070 137.4491
  -1.320  -0.0158   0.00947   0.00305  -0.0130   0.8762   0.8142   9.7858 147.5335
  -0.960   0.0224   0.00954   0.00321  -0.0104   0.8462   0.8803  11.5958 151.5030
  -0.600   0.0646   0.00978   0.00335  -0.0088   0.8122   0.9222  13.6492 154.0479
  -0.240   0.1235   0.01019   0.00354  -0.0107   0.7734   0.9492  15.9882 155.7551
   0.120   0.1970   0.01059   0.00366  -0.0163   0.7238   0.9697  18.9741 157.1641
   0.480   0.2566   0.01076   0.00351  -0.0201   0.6710   0.9818  22.1478 158.1079
   0.840   0.3176   0.01093   0.00333  -0.0244   0.6118   0.9924  25.7181 159.0689
   1.200   0.3763   0.01110   0.00312  -0.0285   0.5499   1.0000  29.4560 160.0000
   1.560   0.4089   0.01129   0.00295  -0.0275   0.4973   1.0000  32.6370 160.0000
   1.920   0.4414   0.01156   0.00286  -0.0265   0.4471   1.0000  35.6917 160.0000
   2.280   0.4740   0.01188   0.00283  -0.0255   0.4054   1.0000  38.2369 160.0000
   2.640   0.5062   0.01225   0.00288  -0.0243   0.3738   1.0000  40.1724 160.0000
   3.000   0.5384   0.01260   0.00298  -0.0231   0.3492   1.0000  41.6898 160.0000
   3.360   0.5704   0.01299   0.00311  -0.0218   0.3305   1.0000  42.8401 160.0000
   3.720   0.6028   0.01339   0.00328  -0.0205   0.3156   1.0000  43.7647 160.0000
   4.080   0.6352   0.01380   0.00349  -0.0192   0.3027   1.0000  44.5706 160.0000
   4.440   0.6676   0.01427   0.00372  -0.0178   0.2916   1.0000  45.2586 160.0000
   4.800   0.7003   0.01473   0.00397  -0.0165   0.2820   1.0000  45.8634 160.0000
   5.160   0.7333   0.01521   0.00428  -0.0153   0.2727   1.0000  46.4432 160.0000
   5.520   0.7664   0.01581   0.00454  -0.0141   0.2644   1.0000  46.9693 160.0000
   5.880   0.7997   0.01627   0.00496  -0.0129   0.2566   1.0000  47.4597 160.0000
   6.240   0.8332   0.01689   0.00525  -0.0118   0.2492   1.0000  47.9289 160.0000
   6.600   0.8664   0.01745   0.00572  -0.0106   0.2419   1.0000  48.3923 160.0000
   6.960   0.9002   0.01805   0.00607  -0.0096   0.2352   1.0000  48.8217 160.0000
   7.320   0.9337   0.01877   0.00658  -0.0085   0.2284   1.0000  49.2548 160.0000
   7.680   0.9674   0.01937   0.00702  -0.0075   0.2217   1.0000  49.6882 160.0000
   8.040   1.0018   0.02024   0.00748  -0.0068   0.2154   1.0000  50.0948 160.0000
   8.400   1.0344   0.02083   0.00805  -0.0056   0.2086   1.0000  50.5401 160.0000
   8.760   1.0692   0.02164   0.00835  -0.0050   0.2023   1.0000  50.9522 160.0000
   9.120   1.1003   0.02234   0.00904  -0.0038   0.1955   1.0000  51.4017 160.0000
   9.480   1.1336   0.02292   0.00927  -0.0029   0.1889   1.0000  51.8447 160.0000
   9.840   1.1642   0.02375   0.00987  -0.0017   0.1820   1.0000  52.3197 160.0000
  10.200   1.1956   0.02421   0.01000  -0.0006   0.1748   1.0000  52.8124 160.0000
  10.560   1.2244   0.02497   0.01045   0.0008   0.1675   1.0000  53.3296 160.0000
  10.920   1.2538   0.02535   0.01042   0.0021   0.1601   1.0000  53.8572 160.0000
  11.280   1.2794   0.02608   0.01086   0.0038   0.1523   1.0000  54.4315 160.0000
  11.640   1.3069   0.02665   0.01074   0.0053   0.1447   1.0000  54.9901 160.0000
  12.000   1.3274   0.02728   0.01120   0.0077   0.1365   1.0000  55.6250 160.0000
