  
       XFOIL         Version 6.99
  
 Calculated polar for: NACA 2415                                       
  
 1 1 Reynolds number fixed          Mach number fixed         
  
 xtrf =   1.000 (top)        1.000 (bottom)  
 Mach =   0.000     Re =     0.000 e 6     Ncrit =   9.000  9.000
  
   alpha    CL        CD       CDp       CM     Top_Xtr  Bot_Xtr  Top_Itr  Bot_Itr
  ------ -------- --------- --------- -------- -------- -------- -------- --------
 -12.000  -1.2170   0.00000  -0.00150  -0.0350   0.0000   0.0000   0.0000   0.0000
 -11.520  -1.1584   0.00000  -0.00149  -0.0357   0.0000   0.0000   0.0000   0.0000
 -11.040  -1.0998   0.00000  -0.00148  -0.0365   0.0000   0.0000   0.0000   0.0000
 -10.560  -1.0411   0.00000  -0.00147  -0.0373   0.0000   0.0000   0.0000   0.0000
 -10.080  -0.9823   0.00000  -0.00146  -0.0380   0.0000   0.0000   0.0000   0.0000
  -9.600  -0.9235   0.00000  -0.00146  -0.0388   0.0000   0.0000   0.0000   0.0000
  -9.120  -0.8646   0.00000  -0.00145  -0.0396   0.0000   0.0000   0.0000   0.0000
  -8.640  -0.8056   0.00000  -0.00144  -0.0405   0.0000   0.0000   0.0000   0.0000
  -8.160  -0.7466   0.00000  -0.00144  -0.0413   0.0000   0.0000   0.0000   0.0000
  -7.680  -0.6875   0.00000  -0.00143  -0.0421   0.0000   0.0000   0.0000   0.0000
  -7.200  -0.6284   0.00000  -0.00142  -0.0430   0.0000   0.0000   0.0000   0.0000
  -6.720  -0.5692   0.00000  -0.00142  -0.0438   0.0000   0.0000   0.0000   0.0000
  -6.240  -0.5100   0.00000  -0.00141  -0.0447   0.0000   0.0000   0.0000   0.0000
  -5.760  -0.4508   0.00000  -0.00141  -0.0455   0.0000   0.0000   0.0000   0.0000
  -5.280  -0.3915   0.00000  -0.00140  -0.0464   0.0000   0.0000   0.0000   0.0000
  -4.800  -0.3322   0.00000  -0.00140  -0.0473   0.0000   0.0000   0.0000   0.0000
  -4.320  -0.2728   0.00000  -0.00140  -0.0481   0.0000   0.0000   0.0000   0.0000
  -3.840  -0.2135   0.00000  -0.00139  -0.0490   0.0000   0.0000   0.0000   0.0000
  -3.360  -0.1541   0.00000  -0.00139  -0.0499   0.0000   0.0000   0.0000   0.0000
  -2.880  -0.0948   0.00000  -0.00139  -0.0508   0.0000   0.0000   0.0000   0.0000
  -2.400  -0.0354   0.00000  -0.00139  -0.0517   0.0000   0.0000   0.0000   0.0000
  -1.920   0.0240   0.00000  -0.00139  -0.0526   0.0000   0.0000   0.0000   0.0000
  -1.440   0.0834   0.00000  -0.00139  -0.0535   0.0000   0.0000   0.0000   0.0000
  -0.960   0.1427   0.00000  -0.00139  -0.0545   0.0000   0.0000   0.0000   0.0000
  -0.480   0.2021   0.00000  -0.00139  -0.0554   0.0000   0.0000   0.0000   0.0000
  -0.000   0.2614   0.00000  -0.00139  -0.0563   0.0000   0.0000   0.0000   0.0000
   0.480   0.3208   0.00000  -0.00139  -0.0572   0.0000   0.0000   0.0000   0.0000
   0.960   0.3801   0.00000  -0.00139  -0.0582   0.0000   0.0000   0.0000   0.0000
   1.440   0.4394   0.00000  -0.00139  -0.0591   0.0000   0.0000   0.0000   0.0000
   1.920   0.4986   0.00000  -0.00140  -0.0601   0.0000   0.0000   0.0000   0.0000
   2.400   0.5578   0.00000  -0.00140  -0.0610   0.0000   0.0000   0.0000   0.0000
   2.880   0.6170   0.00000  -0.00140  -0.0620   0.0000   0.0000   0.0000   0.0000
   3.360   0.6761   0.00000  -0.00141  -0.0629   0.0000   0.0000   0.0000   0.0000
   3.840   0.7352   0.00000  -0.00141  -0.0639   0.0000   0.0000   0.0000   0.0000
   4.320   0.7943   0.00000  -0.00142  -0.0648   0.0000   0.0000   0.0000   0.0000
   4.800   0.8532   0.00000  -0.00142  -0.0658   0.0000   0.0000   0.0000   0.0000
   5.280   0.9121   0.00000  -0.00143  -0.0667   0.0000   0.0000   0.0000   0.0000
   5.760   0.9710   0.00000  -0.00143  -0.0677   0.0000   0.0000   0.0000   0.0000
   6.240   1.0298   0.00000  -0.00144  -0.0686   0.0000   0.0000   0.0000   0.0000
   6.720   1.0885   0.00000  -0.00145  -0.0696   0.0000   0.0000   0.0000   0.0000
   7.200   1.1471   0.00000  -0.00145  -0.0706   0.0000   0.0000   0.0000   0.0000
   7.680   1.2057   0.00000  -0.00146  -0.0715   0.0000   0.0000   0.0000   0.0000
   8.160   1.2642   0.00000  -0.00147  -0.0725   0.0000   0.0000   0.0000   0.0000
   8.640   1.3226   0.00000  -0.00148  -0.0734   0.0000   0.0000   0.0000   0.0000
   9.120   1.3808   0.00000  -0.00149  -0.0744   0.0000   0.0000   0.0000   0.0000
   9.600   1.4390   0.00000  -0.00150  -0.0754   0.0000   0.0000   0.0000   0.0000
  10.080   1.4971   0.00000  -0.00151  -0.0763   0.0000   0.0000   0.0000   0.0000
  10.560   1.5551   0.00000  -0.00152  -0.0773   0.0000   0.0000   0.0000   0.0000
  11.040   1.6130   0.00000  -0.00153  -0.0782   0.0000   0.0000   0.0000   0.0000
  11.520   1.6708   0.00000  -0.00154  -0.0792   0.0000   0.0000   0.0000   0.0000
  12.000   1.7284   0.00000  -0.00155  -0.0801   0.0000   0.0000   0.0000   0.0000
