  
       XFOIL         Version 6.99
  
 Calculated polar for: NACA 23012                                      
  
 1 1 Reynolds number fixed          Mach number fixed         
  
 xtrf =   1.000 (top)        1.000 (bottom)  
 Mach =   0.000     Re =     0.000 e 6     Ncrit =   9.000  9.000
  
   alpha    CL        CD       CDp       CM     Top_Xtr  Bot_Xtr  Top_Itr  Bot_Itr
  ------ -------- --------- --------- -------- -------- -------- -------- --------
 -12.000  -1.3053   0.00000  -0.00136   0.0015   0.0000   0.0000   0.0000   0.0000
 -11.520  -1.2483   0.00000  -0.00135   0.0011   0.0000   0.0000   0.0000   0.0000
 -11.040  -1.1911   0.00000  -0.00133   0.0007   0.0000   0.0000   0.0000   0.0000
 -10.560  -1.1339   0.00000  -0.00131   0.0003   0.0000   0.0000   0.0000   0.0000
 -10.080  -1.0766   0.00000  -0.00130  -0.0001   0.0000   0.0000   0.0000   0.0000
  -9.600  -1.0192   0.00000  -0.00128  -0.0005   0.0000   0.0000   0.0000   0.0000
  -9.120  -0.9618   0.00000  -0.00127  -0.0010   0.0000   0.0000   0.0000   0.0000
  -8.640  -0.9043   0.00000  -0.00125  -0.0014   0.0000   0.0000   0.0000   0.0000
  -8.160  -0.8467   0.00000  -0.00124  -0.0019   0.0000   0.0000   0.0000   0.0000
  -7.680  -0.7891   0.00000  -0.00122  -0.0024   0.0000   0.0000   0.0000   0.0000
  -7.200  -0.7314   0.00000  -0.00121  -0.0028   0.0000   0.0000   0.0000   0.0000
  -6.720  -0.6737   0.00000  -0.00120  -0.0033   0.0000   0.0000   0.0000   0.0000
  -6.240  -0.6159   0.00000  -0.00119  -0.0039   0.0000   0.0000   0.0000   0.0000
  -5.760  -0.5581   0.00000  -0.00118  -0.0044   0.0000   0.0000   0.0000   0.0000
  -5.280  -0.5002   0.00000  -0.00116  -0.0049   0.0000   0.0000   0.0000   0.0000
  -4.800  -0.4423   0.00000  -0.00115  -0.0055   0.0000   0.0000   0.0000   0.0000
  -4.320  -0.3844   0.00000  -0.00114  -0.0060   0.0000   0.0000   0.0000   0.0000
  -3.840  -0.3264   0.00000  -0.00113  -0.0066   0.0000   0.0000   0.0000   0.0000
  -3.360  -0.2684   0.00000  -0.00113  -0.0072   0.0000   0.0000   0.0000   0.0000
  -2.880  -0.2104   0.00000  -0.00112  -0.0078   0.0000   0.0000   0.0000   0.0000
  -2.400  -0.1524   0.00000  -0.00111  -0.0084   0.0000   0.0000   0.0000   0.0000
  -1.920  -0.0944   0.00000  -0.00110  -0.0090   0.0000   0.0000   0.0000   0.0000
  -1.440  -0.0364   0.00000  -0.00110  -0.0097   0.0000   0.0000   0.0000   0.0000
  -0.960   0.0216   0.00000  -0.00109  -0.0103   0.0000   0.0000   0.0000   0.0000
  -0.480   0.0797   0.00000  -0.00109  -0.0110   0.0000   0.0000   0.0000   0.0000
  -0.000   0.1377   0.00000  -0.00108  -0.0116   0.0000   0.0000   0.0000   0.0000
   0.480   0.1957   0.00000  -0.00108  -0.0123   0.0000   0.0000   0.0000   0.0000
   0.960   0.2537   0.00000  -0.00108  -0.0130   0.0000   0.0000   0.0000   0.0000
   1.440   0.3117   0.00000  -0.00107  -0.0137   0.0000   0.0000   0.0000   0.0000
   1.920   0.3696   0.00000  -0.00107  -0.0144   0.0000   0.0000   0.0000   0.0000
   2.400   0.4276   0.00000  -0.00107  -0.0151   0.0000   0.0000   0.0000   0.0000
   2.880   0.4855   0.00000  -0.00107  -0.0158   0.0000   0.0000   0.0000   0.0000
   3.360   0.5433   0.00000  -0.00107  -0.0166   0.0000   0.0000   0.0000   0.0000
   3.840   0.6012   0.00000  -0.00107  -0.0173   0.0000   0.0000   0.0000   0.0000
   4.320   0.6590   0.00000  -0.00108  -0.0180   0.0000   0.0000   0.0000   0.0000
   4.800   0.7167   0.00000  -0.00108  -0.0188   0.0000   0.0000   0.0000   0.0000
   5.280   0.7744   0.00000  -0.00108  -0.0196   0.0000   0.0000   0.0000   0.0000
   5.760   0.8320   0.00000  -0.00109  -0.0203   0.0000   0.0000   0.0000   0.0000
   6.240   0.8896   0.00000  -0.00109  -0.0211   0.0000   0.0000   0.0000   0.0000
   6.720   0.9471   0.00000  -0.00110  -0.0219   0.0000   0.0000   0.0000   0.0000
   7.200   1.0046   0.00000  -0.00110  -0.0227   0.0000   0.0000   0.0000   0.0000
   7.680   1.0619   0.00000  -0.00111  -0.0235   0.0000   0.0000   0.0000   0.0000
   8.160   1.1192   0.00000  -0.00112  -0.0243   0.0000   0.0000   0.0000   0.0000
   8.640   1.1765   0.00000  -0.00113  -0.0252   0.0000   0.0000   0.0000   0.0000
   9.120   1.2336   0.00000  -0.00113  -0.0260   0.0000   0.0000   0.0000   0.0000
   9.600   1.2907   0.00000  -0.00114  -0.0268   0.0000   0.0000   0.0000   0.0000
  10.080   1.3476   0.00000  -0.00115  -0.0276   0.0000   0.0000   0.0000   0.0000
  10.560   1.4045   0.00000  -0.00117  -0.0285   0.0000   0.0000   0.0000   0.0000
  11.040   1.4613   0.00000  -0.00118  -0.0293   0.0000   0.0000   0.0000   0.0000
  11.520   1.5179   0.00000  -0.00119  -0.0302   0.0000   0.0000   0.0000   0.0000
  12.000   1.5745   0.00000  -0.00120  -0.0311   0.0000   0.0000   0.0000   0.0000
 -12.000  -1.2170   0.00000  -0.00150  -0.0350   0.0000   0.0000   0.0000   0.0000
 -11.520  -1.1584   0.00000  -0.00149  -0.0357   0.0000   0.0000   0.0000   0.0000
 -11.040  -1.0998   0.00000  -0.00148  -0.0365   0.0000   0.0000   0.0000   0.0000
 -10.560  -1.0411   0.00000  -0.00147  -0.0373   0.0000   0.0000   0.0000   0.0000
 -10.080  -0.9823   0.00000  -0.00146  -0.0380   0.0000   0.0000   0.0000   0.0000
  -9.600  -0.9235   0.00000  -0.00146  -0.0388   0.0000   0.0000   0.0000   0.0000
  -9.120  -0.8646   0.00000  -0.00145  -0.0396   0.0000   0.0000   0.0000   0.0000
  -8.640  -0.8056   0.00000  -0.00144  -0.0405   0.0000   0.0000   0.0000   0.0000
  -8.160  -0.7466   0.00000  -0.00144  -0.0413   0.0000   0.0000   0.0000   0.0000
  -7.680  -0.6875   0.00000  -0.00143  -0.0421   0.0000   0.0000   0.0000   0.0000
  -7.200  -0.6284   0.00000  -0.00142  -0.0430   0.0000   0.0000   0.0000   0.0000
  -6.720  -0.5692   0.00000  -0.00142  -0.0438   0.0000   0.0000   0.0000   0.0000
  -6.240  -0.5100   0.00000  -0.00141  -0.0447   0.0000   0.0000   0.0000   0.0000
  -5.760  -0.4508   0.00000  -0.00141  -0.0455   0.0000   0.0000   0.0000   0.0000
  -5.280  -0.3915   0.00000  -0.00140  -0.0464   0.0000   0.0000   0.0000   0.0000
  -4.800  -0.3322   0.00000  -0.00140  -0.0473   0.0000   0.0000   0.0000   0.0000
  -4.320  -0.2728   0.00000  -0.00140  -0.0481   0.0000   0.0000   0.0000   0.0000
  -3.840  -0.2135   0.00000  -0.00139  -0.0490   0.0000   0.0000   0.0000   0.0000
  -3.360  -0.1541   0.00000  -0.00139  -0.0499   0.0000   0.0000   0.0000   0.0000
  -2.880  -0.0948   0.00000  -0.00139  -0.0508   0.0000   0.0000   0.0000   0.0000
  -2.400  -0.0354   0.00000  -0.00139  -0.0517   0.0000   0.0000   0.0000   0.0000
  -1.920   0.0240   0.00000  -0.00139  -0.0526   0.0000   0.0000   0.0000   0.0000
  -1.440   0.0834   0.00000  -0.00139  -0.0535   0.0000   0.0000   0.0000   0.0000
  -0.960   0.1427   0.00000  -0.00139  -0.0545   0.0000   0.0000   0.0000   0.0000
  -0.480   0.2021   0.00000  -0.00139  -0.0554   0.0000   0.0000   0.0000   0.0000
  -0.000   0.2614   0.00000  -0.00139  -0.0563   0.0000   0.0000   0.0000   0.0000
   0.480   0.3208   0.00000  -0.00139  -0.0572   0.0000   0.0000   0.0000   0.0000
   0.960   0.3801   0.00000  -0.00139  -0.0582   0.0000   0.0000   0.0000   0.0000
   1.440   0.4394   0.00000  -0.00139  -0.0591   0.0000   0.0000   0.0000   0.0000
   1.920   0.4986   0.00000  -0.00140  -0.0601   0.0000   0.0000   0.0000   0.0000
   2.400   0.5578   0.00000  -0.00140  -0.0610   0.0000   0.0000   0.0000   0.0000
   2.880   0.6170   0.00000  -0.00140  -0.0620   0.0000   0.0000   0.0000   0.0000
   3.360   0.6761   0.00000  -0.00141  -0.0629   0.0000   0.0000   0.0000   0.0000
   3.840   0.7352   0.00000  -0.00141  -0.0639   0.0000   0.0000   0.0000   0.0000
   4.320   0.7943   0.00000  -0.00142  -0.0648   0.0000   0.0000   0.0000   0.0000
   4.800   0.8532   0.00000  -0.00142  -0.0658   0.0000   0.0000   0.0000   0.0000
   5.280   0.9121   0.00000  -0.00143  -0.0667   0.0000   0.0000   0.0000   0.0000
   5.760   0.9710   0.00000  -0.00143  -0.0677   0.0000   0.0000   0.0000   0.0000
   6.240   1.0298   0.00000  -0.00144  -0.0686   0.0000   0.0000   0.0000   0.0000
   6.720   1.0885   0.00000  -0.00145  -0.0696   0.0000   0.0000   0.0000   0.0000
   7.200   1.1471   0.00000  -0.00145  -0.0706   0.0000   0.0000   0.0000   0.0000
   7.680   1.2057   0.00000  -0.00146  -0.0715   0.0000   0.0000   0.0000   0.0000
   8.160   1.2642   0.00000  -0.00147  -0.0725   0.0000   0.0000   0.0000   0.0000
   8.640   1.3226   0.00000  -0.00148  -0.0734   0.0000   0.0000   0.0000   0.0000
   9.120   1.3808   0.00000  -0.00149  -0.0744   0.0000   0.0000   0.0000   0.0000
   9.600   1.4390   0.00000  -0.00150  -0.0754   0.0000   0.0000   0.0000   0.0000
  10.080   1.4971   0.00000  -0.00151  -0.0763   0.0000   0.0000   0.0000   0.0000
  10.560   1.5551   0.00000  -0.00152  -0.0773   0.0000   0.0000   0.0000   0.0000
  11.040   1.6130   0.00000  -0.00153  -0.0782   0.0000   0.0000   0.0000   0.0000
  11.520   1.6708   0.00000  -0.00154  -0.0792   0.0000   0.0000   0.0000   0.0000
  12.000   1.7284   0.00000  -0.00155  -0.0801   0.0000   0.0000   0.0000   0.0000
 -12.000  -1.3053   0.00000  -0.00136   0.0015   0.0000   0.0000   0.0000   0.0000
 -11.520  -1.2483   0.00000  -0.00135   0.0011   0.0000   0.0000   0.0000   0.0000
 -11.040  -1.1911   0.00000  -0.00133   0.0007   0.0000   0.0000   0.0000   0.0000
 -10.560  -1.1339   0.00000  -0.00131   0.0003   0.0000   0.0000   0.0000   0.0000
 -10.080  -1.0766   0.00000  -0.00130  -0.0001   0.0000   0.0000   0.0000   0.0000
  -9.600  -1.0192   0.00000  -0.00128  -0.0005   0.0000   0.0000   0.0000   0.0000
  -9.120  -0.9618   0.00000  -0.00127  -0.0010   0.0000   0.0000   0.0000   0.0000
  -8.640  -0.9043   0.00000  -0.00125  -0.0014   0.0000   0.0000   0.0000   0.0000
  -8.160  -0.8467   0.00000  -0.00124  -0.0019   0.0000   0.0000   0.0000   0.0000
  -7.680  -0.7891   0.00000  -0.00122  -0.0024   0.0000   0.0000   0.0000   0.0000
  -7.200  -0.7314   0.00000  -0.00121  -0.0028   0.0000   0.0000   0.0000   0.0000
  -6.720  -0.6737   0.00000  -0.00120  -0.0033   0.0000   0.0000   0.0000   0.0000
  -6.240  -0.6159   0.00000  -0.00119  -0.0039   0.0000   0.0000   0.0000   0.0000
  -5.760  -0.5581   0.00000  -0.00118  -0.0044   0.0000   0.0000   0.0000   0.0000
  -5.280  -0.5002   0.00000  -0.00116  -0.0049   0.0000   0.0000   0.0000   0.0000
  -4.800  -0.4423   0.00000  -0.00115  -0.0055   0.0000   0.0000   0.0000   0.0000
  -4.320  -0.3844   0.00000  -0.00114  -0.0060   0.0000   0.0000   0.0000   0.0000
  -3.840  -0.3264   0.00000  -0.00113  -0.0066   0.0000   0.0000   0.0000   0.0000
  -3.360  -0.2684   0.00000  -0.00113  -0.0072   0.0000   0.0000   0.0000   0.0000
  -2.880  -0.2104   0.00000  -0.00112  -0.0078   0.0000   0.0000   0.0000   0.0000
  -2.400  -0.1524   0.00000  -0.00111  -0.0084   0.0000   0.0000   0.0000   0.0000
  -1.920  -0.0944   0.00000  -0.00110  -0.0090   0.0000   0.0000   0.0000   0.0000
  -1.440  -0.0364   0.00000  -0.00110  -0.0097   0.0000   0.0000   0.0000   0.0000
  -0.960   0.0216   0.00000  -0.00109  -0.0103   0.0000   0.0000   0.0000   0.0000
  -0.480   0.0797   0.00000  -0.00109  -0.0110   0.0000   0.0000   0.0000   0.0000
  -0.000   0.1377   0.00000  -0.00108  -0.0116   0.0000   0.0000   0.0000   0.0000
   0.480   0.1957   0.00000  -0.00108  -0.0123   0.0000   0.0000   0.0000   0.0000
   0.960   0.2537   0.00000  -0.00108  -0.0130   0.0000   0.0000   0.0000   0.0000
   1.440   0.3117   0.00000  -0.00107  -0.0137   0.0000   0.0000   0.0000   0.0000
   1.920   0.3696   0.00000  -0.00107  -0.0144   0.0000   0.0000   0.0000   0.0000
   2.400   0.4276   0.00000  -0.00107  -0.0151   0.0000   0.0000   0.0000   0.0000
   2.880   0.4855   0.00000  -0.00107  -0.0158   0.0000   0.0000   0.0000   0.0000
   3.360   0.5433   0.00000  -0.00107  -0.0166   0.0000   0.0000   0.0000   0.0000
   3.840   0.6012   0.00000  -0.00107  -0.0173   0.0000   0.0000   0.0000   0.0000
   4.320   0.6590   0.00000  -0.00108  -0.0180   0.0000   0.0000   0.0000   0.0000
   4.800   0.7167   0.00000  -0.00108  -0.0188   0.0000   0.0000   0.0000   0.0000
   5.280   0.7744   0.00000  -0.00108  -0.0196   0.0000   0.0000   0.0000   0.0000
   5.760   0.8320   0.00000  -0.00109  -0.0203   0.0000   0.0000   0.0000   0.0000
   6.240   0.8896   0.00000  -0.00109  -0.0211   0.0000   0.0000   0.0000   0.0000
   6.720   0.9471   0.00000  -0.00110  -0.0219   0.0000   0.0000   0.0000   0.0000
   7.200   1.0046   0.00000  -0.00110  -0.0227   0.0000   0.0000   0.0000   0.0000
   7.680   1.0619   0.00000  -0.00111  -0.0235   0.0000   0.0000   0.0000   0.0000
   8.160   1.1192   0.00000  -0.00112  -0.0243   0.0000   0.0000   0.0000   0.0000
   8.640   1.1765   0.00000  -0.00113  -0.0252   0.0000   0.0000   0.0000   0.0000
   9.120   1.2336   0.00000  -0.00113  -0.0260   0.0000   0.0000   0.0000   0.0000
   9.600   1.2907   0.00000  -0.00114  -0.0268   0.0000   0.0000   0.0000   0.0000
  10.080   1.3476   0.00000  -0.00115  -0.0276   0.0000   0.0000   0.0000   0.0000
  10.560   1.4045   0.00000  -0.00117  -0.0285   0.0000   0.0000   0.0000   0.0000
  11.040   1.4613   0.00000  -0.00118  -0.0293   0.0000   0.0000   0.0000   0.0000
  11.520   1.5179   0.00000  -0.00119  -0.0302   0.0000   0.0000   0.0000   0.0000
  12.000   1.5745   0.00000  -0.00120  -0.0311   0.0000   0.0000   0.0000   0.0000
