  
       XFOIL         Version 6.99
  
 Calculated polar for: NACA 23012                                      
  
 1 1 Reynolds number fixed          Mach number fixed         
  
 xtrf =   1.000 (top)        1.000 (bottom)  
 Mach =   0.000     Re =     0.200 e 6     Ncrit =   9.000  9.000
  
   alpha    CL        CD       CDp       CM     Top_Xtr  Bot_Xtr  Top_Itr  Bot_Itr
  ------ -------- --------- --------- -------- -------- -------- -------- --------
  -7.440  -0.6015   0.05368   0.04162  -0.0259   1.0000   0.0651   1.0000 101.2064
  -6.880  -0.5844   0.04853   0.03657  -0.0215   1.0000   0.0704   1.0000 101.6639
  -5.200  -0.5276   0.03389   0.02243  -0.0049   1.0000   0.0945   1.0000 103.4702
  -4.640  -0.4983   0.03051   0.01905  -0.0005   1.0000   0.1120   1.0000 104.6118
  -2.960  -0.2095   0.01621   0.00554  -0.0139   0.9678   0.0730   3.9958 101.8925
  -2.400  -0.1182   0.01400   0.00410  -0.0193   0.9434   0.0918   5.6428 103.2835
  -1.840  -0.0510   0.01158   0.00282  -0.0201   0.9124   0.2873   7.5807 115.6178
  -1.280  -0.0115   0.00946   0.00305  -0.0127   0.8738   0.8243   9.9320 148.1381
  -0.720   0.0509   0.00969   0.00329  -0.0093   0.8245   0.9094  12.9086 153.2633
  -0.160   0.1390   0.01030   0.00360  -0.0117   0.7626   0.9550  16.6327 156.1376
   0.400   0.2432   0.01072   0.00355  -0.0192   0.6830   0.9795  21.4303 157.9156
   0.960   0.3387   0.01098   0.00324  -0.0260   0.5911   0.9950  26.9683 159.3948
   1.520   0.4052   0.01126   0.00297  -0.0277   0.5034   1.0000  32.2719 160.0000
   2.080   0.4558   0.01170   0.00283  -0.0261   0.4274   1.0000  36.8937 160.0000
   2.640   0.5062   0.01225   0.00288  -0.0243   0.3738   1.0000  40.1725 160.0000
   3.200   0.5562   0.01281   0.00305  -0.0224   0.3382   1.0000  42.3651 160.0000
   3.760   0.6063   0.01345   0.00330  -0.0203   0.3142   1.0000  43.8508 160.0000
   4.320   0.6566   0.01417   0.00362  -0.0183   0.2953   1.0000  45.0271 160.0000
   4.880   0.7076   0.01491   0.00402  -0.0163   0.2800   1.0000  45.9853 160.0000
   5.440   0.7589   0.01561   0.00448  -0.0143   0.2661   1.0000  46.8594 160.0000
   6.000   0.8108   0.01644   0.00506  -0.0125   0.2540   1.0000  47.6236 160.0000
   6.560   0.8627   0.01739   0.00567  -0.0107   0.2427   1.0000  48.3411 160.0000
   7.120   0.9158   0.01853   0.00626  -0.0093   0.2321   1.0000  49.0144 160.0000
   7.680   0.9674   0.01937   0.00702  -0.0075   0.2217   1.0000  49.6882 160.0000
   8.240   1.0196   0.02055   0.00783  -0.0061   0.2116   1.0000  50.3426 160.0000
   8.800   1.0732   0.02186   0.00844  -0.0051   0.2015   1.0000  51.0056 160.0000
   9.360   1.1222   0.02270   0.00924  -0.0031   0.1910   1.0000  51.7071 160.0000
   9.920   1.1708   0.02387   0.00996  -0.0014   0.1803   1.0000  52.4377 160.0000
  10.480   1.2185   0.02485   0.01034   0.0004   0.1693   1.0000  53.2006 160.0000
  11.040   1.2640   0.02572   0.01048   0.0024   0.1577   1.0000  54.0332 160.0000
  11.600   1.3034   0.02649   0.01074   0.0052   0.1456   1.0000  54.9223 160.0000
  12.160   1.3373   0.02754   0.01114   0.0085   0.1331   1.0000  55.8791 160.0000
  12.720   1.3621   0.02890   0.01167   0.0128   0.1204   1.0000  56.8919 160.0000
  13.280   1.3753   0.03094   0.01266   0.0178   0.1076   1.0000  57.9524 160.0000
  13.840   1.3815   0.03418   0.01469   0.0214   0.0947   1.0000  59.0878 160.0000
  14.400   1.3793   0.03911   0.01815   0.0230   0.0826   1.0000  60.2091 160.0000
  14.960   1.3670   0.04618   0.02342   0.0224   0.0732   1.0000  61.1411 160.0000
  15.520   1.3474   0.05526   0.03061   0.0195   0.0661   1.0000  61.8945 160.0000
  16.080   1.3208   0.06615   0.03972   0.0152   0.0607   1.0000  62.4999 160.0000
  16.640   1.2962   0.07677   0.04846   0.0112   0.0562   1.0000  63.0224 160.0000
  17.200   1.2626   0.09017   0.06079   0.0047   0.0530   1.0000  63.4300 160.0000
  17.760   1.2450   0.10070   0.07029   0.0001   0.0492   1.0000  63.9115 160.0000
  18.880   1.1825   0.12919   0.10107  -0.0149   0.0444   1.0000  64.5836 160.0000
  19.440   1.1828   0.13695   0.10967  -0.0185   0.0413   1.0000  65.0367 160.0000
  20.000   1.1060   0.16390   0.14888  -0.0359   0.0412   1.0000  65.0538 160.0000
